tests/data/upgrade-models/sb10_p12uhs0_1247_trans_301/p12udt1277/OpenDSS/Transformers.dss
New Transformer.tr(r:p12udt0-p12udt0lv) phases=1 windings=3 %loadloss=0.798816 %Noloadloss=0.37 normhkva=55.0 wdg=1 conn=wye bus=p12udt0.2 Kv=7.2 kva=50.0 EmergHKVA=75.0 %r=0.266272 wdg=2 conn=wye bus=p12udt0lv.1.0 Kv=0.12 kva=50.0 EmergHKVA=75.0 %r=0.532544 wdg=3 conn=wye bus=p12udt0lv.0.2 Kv=0.12 kva=50.0 EmergHKVA=75.0 %r=0.532544 XHL=2.4 XLT=2.4 XHT=1.6

New Transformer.tr(r:p12udt58-p12udt58lv) phases=1 windings=3 %loadloss=0.798816 %Noloadloss=0.472 normhkva=27.5 wdg=1 conn=wye bus=p12udt58.2 Kv=7.2 kva=25.0 EmergHKVA=37.5 %r=0.266272 wdg=2 conn=wye bus=p12udt58lv.1.0 Kv=0.12 kva=25.0 EmergHKVA=37.5 %r=0.532544 wdg=3 conn=wye bus=p12udt58lv.0.2 Kv=0.12 kva=25.0 EmergHKVA=37.5 %r=0.532544 XHL=2.4 XLT=2.4 XHT=1.6

New Transformer.tr(r:p12udt321-p12udt321lv) phases=3 windings=2 %loadloss=1.74408 %Noloadloss=0.6 normhkva=82.5 wdg=1 conn=wye Kv=12.47 kva=75.0 EmergHKVA=112.5 %R=0.87204 bus=p12udt321 wdg=2 conn=wye Kv=0.48 kva=75.0 EmergHKVA=112.5 %R=0.87204 bus=p12udt321lv XHL=3.2400000000000007

New Transformer.tr(r:p12udt322-p12udt322lv) phases=1 windings=3 %loadloss=0.798816 %Noloadloss=0.472 normhkva=27.5 wdg=1 conn=wye bus=p12udt322.2 Kv=7.2 kva=25.0 EmergHKVA=37.5 %r=0.266272 wdg=2 conn=wye bus=p12udt322lv.1.0 Kv=0.12 kva=25.0 EmergHKVA=37.5 %r=0.532544 wdg=3 conn=wye bus=p12udt322lv.0.2 Kv=0.12 kva=25.0 EmergHKVA=37.5 %r=0.532544 XHL=2.4 XLT=2.4 XHT=1.6

New Transformer.tr(r:p12udt1060-p12udt1060lv) phases=1 windings=3 %loadloss=0.798816 %Noloadloss=0.472 normhkva=27.5 wdg=1 conn=wye bus=p12udt1060.1 Kv=7.2 kva=25.0 EmergHKVA=37.5 %r=0.266272 wdg=2 conn=wye bus=p12udt1060lv.1.0 Kv=0.12 kva=25.0 EmergHKVA=37.5 %r=0.532544 wdg=3 conn=wye bus=p12udt1060lv.0.2 Kv=0.12 kva=25.0 EmergHKVA=37.5 %r=0.532544 XHL=2.4 XLT=2.4 XHT=1.6

New Transformer.tr(r:p12udt1262-p12udt1262lv) phases=1 windings=3 %loadloss=0.798816 %Noloadloss=0.37 normhkva=55.0 wdg=1 conn=wye bus=p12udt1262.2 Kv=7.2 kva=50.0 EmergHKVA=75.0 %r=0.266272 wdg=2 conn=wye bus=p12udt1262lv.1.0 Kv=0.12 kva=50.0 EmergHKVA=75.0 %r=0.532544 wdg=3 conn=wye bus=p12udt1262lv.0.2 Kv=0.12 kva=50.0 EmergHKVA=75.0 %r=0.532544 XHL=2.4 XLT=2.4 XHT=1.6

New Transformer.tr(r:p12udt1268-p12udt1268lv) phases=1 windings=3 %loadloss=0.798816 %Noloadloss=0.37 normhkva=55.0 wdg=1 conn=wye bus=p12udt1268.2 Kv=7.2 kva=50.0 EmergHKVA=75.0 %r=0.266272 wdg=2 conn=wye bus=p12udt1268lv.1.0 Kv=0.12 kva=50.0 EmergHKVA=75.0 %r=0.532544 wdg=3 conn=wye bus=p12udt1268lv.0.2 Kv=0.12 kva=50.0 EmergHKVA=75.0 %r=0.532544 XHL=2.4 XLT=2.4 XHT=1.6

New Transformer.tr(r:p12udt1277-p12udt1277lv) phases=1 windings=3 %loadloss=0.798816 %Noloadloss=0.472 normhkva=27.5 wdg=1 conn=wye bus=p12udt1277.3 Kv=7.2 kva=25.0 EmergHKVA=37.5 %r=0.266272 wdg=2 conn=wye bus=p12udt1277lv.1.0 Kv=0.12 kva=25.0 EmergHKVA=37.5 %r=0.532544 wdg=3 conn=wye bus=p12udt1277lv.0.2 Kv=0.12 kva=25.0 EmergHKVA=37.5 %r=0.532544 XHL=2.4 XLT=2.4 XHT=1.6

New Transformer.tr(r:p12udt1527-p12udt1527lv) phases=1 windings=3 %loadloss=0.49926 %Noloadloss=0.38 normhkva=82.5 wdg=1 conn=wye bus=p12udt1527.2 Kv=7.2 kva=75.0 EmergHKVA=112.5 %r=0.16642 wdg=2 conn=wye bus=p12udt1527lv.1.0 Kv=0.12 kva=75.0 EmergHKVA=112.5 %r=0.33284 wdg=3 conn=wye bus=p12udt1527lv.0.2 Kv=0.12 kva=75.0 EmergHKVA=112.5 %r=0.33284 XHL=2.4 XLT=2.4 XHT=1.6

New Transformer.tr(r:p12udt1532-p12udt1532lv) phases=1 windings=3 %loadloss=0.798816 %Noloadloss=0.472 normhkva=27.5 wdg=1 conn=wye bus=p12udt1532.2 Kv=7.2 kva=25.0 EmergHKVA=37.5 %r=0.266272 wdg=2 conn=wye bus=p12udt1532lv.1.0 Kv=0.12 kva=25.0 EmergHKVA=37.5 %r=0.532544 wdg=3 conn=wye bus=p12udt1532lv.0.2 Kv=0.12 kva=25.0 EmergHKVA=37.5 %r=0.532544 XHL=2.4 XLT=2.4 XHT=1.6

New Transformer.tr(r:p12udt1544-p12udt1544lv) phases=1 windings=3 %loadloss=1.248151 %Noloadloss=0.68 normhkva=11.0 wdg=1 conn=wye bus=p12udt1544.2 Kv=7.2 kva=10.0 EmergHKVA=15.0 %r=0.41605 wdg=2 conn=wye bus=p12udt1544lv.1.0 Kv=0.12 kva=10.0 EmergHKVA=15.0 %r=0.832101 wdg=3 conn=wye bus=p12udt1544lv.0.2 Kv=0.12 kva=10.0 EmergHKVA=15.0 %r=0.832101 XHL=1.08 XLT=1.08 XHT=0.72

New Transformer.tr(r:p12udt1547-p12udt1547lv) phases=1 windings=3 %loadloss=0.798816 %Noloadloss=0.472 normhkva=27.5 wdg=1 conn=wye bus=p12udt1547.1 Kv=7.2 kva=25.0 EmergHKVA=37.5 %r=0.266272 wdg=2 conn=wye bus=p12udt1547lv.1.0 Kv=0.12 kva=25.0 EmergHKVA=37.5 %r=0.532544 wdg=3 conn=wye bus=p12udt1547lv.0.2 Kv=0.12 kva=25.0 EmergHKVA=37.5 %r=0.532544 XHL=2.4 XLT=2.4 XHT=1.6

New Transformer.tr(r:p12udt1553-p12udt1553lv) phases=1 windings=3 %loadloss=0.798816 %Noloadloss=0.37 normhkva=55.0 wdg=1 conn=wye bus=p12udt1553.2 Kv=7.2 kva=50.0 EmergHKVA=75.0 %r=0.266272 wdg=2 conn=wye bus=p12udt1553lv.1.0 Kv=0.12 kva=50.0 EmergHKVA=75.0 %r=0.532544 wdg=3 conn=wye bus=p12udt1553lv.0.2 Kv=0.12 kva=50.0 EmergHKVA=75.0 %r=0.532544 XHL=2.4 XLT=2.4 XHT=1.6

New Transformer.tr(r:p12udt1557-p12udt1557lv) phases=1 windings=3 %loadloss=0.798816 %Noloadloss=0.472 normhkva=27.5 wdg=1 conn=wye bus=p12udt1557.1 Kv=7.2 kva=25.0 EmergHKVA=37.5 %r=0.266272 wdg=2 conn=wye bus=p12udt1557lv.1.0 Kv=0.12 kva=25.0 EmergHKVA=37.5 %r=0.532544 wdg=3 conn=wye bus=p12udt1557lv.0.2 Kv=0.12 kva=25.0 EmergHKVA=37.5 %r=0.532544 XHL=2.4 XLT=2.4 XHT=1.6

New Transformer.tr(r:p12udt1589-p12udt1589lv) phases=1 windings=3 %loadloss=0.798816 %Noloadloss=0.472 normhkva=27.5 wdg=1 conn=wye bus=p12udt1589.3 Kv=7.2 kva=25.0 EmergHKVA=37.5 %r=0.266272 wdg=2 conn=wye bus=p12udt1589lv.1.0 Kv=0.12 kva=25.0 EmergHKVA=37.5 %r=0.532544 wdg=3 conn=wye bus=p12udt1589lv.0.2 Kv=0.12 kva=25.0 EmergHKVA=37.5 %r=0.532544 XHL=2.4 XLT=2.4 XHT=1.6

New Transformer.tr(r:p12udt1591-p12udt1591lv) phases=1 windings=3 %loadloss=0.798816 %Noloadloss=0.472 normhkva=27.5 wdg=1 conn=wye bus=p12udt1591.3 Kv=7.2 kva=25.0 EmergHKVA=37.5 %r=0.266272 wdg=2 conn=wye bus=p12udt1591lv.1.0 Kv=0.12 kva=25.0 EmergHKVA=37.5 %r=0.532544 wdg=3 conn=wye bus=p12udt1591lv.0.2 Kv=0.12 kva=25.0 EmergHKVA=37.5 %r=0.532544 XHL=2.4 XLT=2.4 XHT=1.6

New Transformer.tr(r:p12udt1594-p12udt1594lv) phases=1 windings=3 %loadloss=0.798816 %Noloadloss=0.472 normhkva=27.5 wdg=1 conn=wye bus=p12udt1594.3 Kv=7.2 kva=25.0 EmergHKVA=37.5 %r=0.266272 wdg=2 conn=wye bus=p12udt1594lv.1.0 Kv=0.12 kva=25.0 EmergHKVA=37.5 %r=0.532544 wdg=3 conn=wye bus=p12udt1594lv.0.2 Kv=0.12 kva=25.0 EmergHKVA=37.5 %r=0.532544 XHL=2.4 XLT=2.4 XHT=1.6

New Transformer.tr(r:p12udt1595-p12udt1595lv) phases=1 windings=3 %loadloss=0.798816 %Noloadloss=0.472 normhkva=27.5 wdg=1 conn=wye bus=p12udt1595.3 Kv=7.2 kva=25.0 EmergHKVA=37.5 %r=0.266272 wdg=2 conn=wye bus=p12udt1595lv.1.0 Kv=0.12 kva=25.0 EmergHKVA=37.5 %r=0.532544 wdg=3 conn=wye bus=p12udt1595lv.0.2 Kv=0.12 kva=25.0 EmergHKVA=37.5 %r=0.532544 XHL=2.4 XLT=2.4 XHT=1.6

New Transformer.tr(r:p12udt2199-p12udt2199lv) phases=1 windings=3 %loadloss=1.248151 %Noloadloss=0.68 normhkva=11.0 wdg=1 conn=wye bus=p12udt2199.2 Kv=7.2 kva=10.0 EmergHKVA=15.0 %r=0.41605 wdg=2 conn=wye bus=p12udt2199lv.1.0 Kv=0.12 kva=10.0 EmergHKVA=15.0 %r=0.832101 wdg=3 conn=wye bus=p12udt2199lv.0.2 Kv=0.12 kva=10.0 EmergHKVA=15.0 %r=0.832101 XHL=1.08 XLT=1.08 XHT=0.72

New Transformer.tr(r:p12udt3257-p12udt3257lv) phases=1 windings=3 %loadloss=0.599112 %Noloadloss=0.37 normhkva=55.0 wdg=1 conn=wye bus=p12udt3257.3 Kv=7.2 kva=50.0 EmergHKVA=75.0 %r=0.199704 wdg=2 conn=wye bus=p12udt3257lv.1.0 Kv=0.12 kva=50.0 EmergHKVA=75.0 %r=0.399408 wdg=3 conn=wye bus=p12udt3257lv.0.2 Kv=0.12 kva=50.0 EmergHKVA=75.0 %r=0.399408 XHL=2.4 XLT=2.4 XHT=1.6

New Transformer.tr(r:p12udt3329-p12udt3329lv) phases=1 windings=3 %loadloss=0.599112 %Noloadloss=0.37 normhkva=55.0 wdg=1 conn=wye bus=p12udt3329.3 Kv=7.2 kva=50.0 EmergHKVA=75.0 %r=0.199704 wdg=2 conn=wye bus=p12udt3329lv.1.0 Kv=0.12 kva=50.0 EmergHKVA=75.0 %r=0.399408 wdg=3 conn=wye bus=p12udt3329lv.0.2 Kv=0.12 kva=50.0 EmergHKVA=75.0 %r=0.399408 XHL=2.4 XLT=2.4 XHT=1.6

New Transformer.tr(r:p12udt3331-p12udt3331lv) phases=1 windings=3 %loadloss=1.248151 %Noloadloss=0.68 normhkva=11.0 wdg=1 conn=wye bus=p12udt3331.3 Kv=7.2 kva=10.0 EmergHKVA=15.0 %r=0.41605 wdg=2 conn=wye bus=p12udt3331lv.1.0 Kv=0.12 kva=10.0 EmergHKVA=15.0 %r=0.832101 wdg=3 conn=wye bus=p12udt3331lv.0.2 Kv=0.12 kva=10.0 EmergHKVA=15.0 %r=0.832101 XHL=1.08 XLT=1.08 XHT=0.72

New Transformer.tr(r:p12udt3332-p12udt3332lv) phases=1 windings=3 %loadloss=1.248151 %Noloadloss=0.68 normhkva=11.0 wdg=1 conn=wye bus=p12udt3332.3 Kv=7.2 kva=10.0 EmergHKVA=15.0 %r=0.41605 wdg=2 conn=wye bus=p12udt3332lv.1.0 Kv=0.12 kva=10.0 EmergHKVA=15.0 %r=0.832101 wdg=3 conn=wye bus=p12udt3332lv.0.2 Kv=0.12 kva=10.0 EmergHKVA=15.0 %r=0.832101 XHL=1.08 XLT=1.08 XHT=0.72

New Transformer.tr(r:p12udt3334-p12udt3334lv) phases=1 windings=3 %loadloss=0.798816 %Noloadloss=0.472 normhkva=27.5 wdg=1 conn=wye bus=p12udt3334.3 Kv=7.2 kva=25.0 EmergHKVA=37.5 %r=0.266272 wdg=2 conn=wye bus=p12udt3334lv.1.0 Kv=0.12 kva=25.0 EmergHKVA=37.5 %r=0.532544 wdg=3 conn=wye bus=p12udt3334lv.0.2 Kv=0.12 kva=25.0 EmergHKVA=37.5 %r=0.532544 XHL=2.4 XLT=2.4 XHT=1.6

New Transformer.tr(r:p12udt3417-p12udt3417lv) phases=1 windings=3 %loadloss=0.798816 %Noloadloss=0.472 normhkva=27.5 wdg=1 conn=wye bus=p12udt3417.2 Kv=7.2 kva=25.0 EmergHKVA=37.5 %r=0.266272 wdg=2 conn=wye bus=p12udt3417lv.1.0 Kv=0.12 kva=25.0 EmergHKVA=37.5 %r=0.532544 wdg=3 conn=wye bus=p12udt3417lv.0.2 Kv=0.12 kva=25.0 EmergHKVA=37.5 %r=0.532544 XHL=2.4 XLT=2.4 XHT=1.6

New Transformer.tr(r:p12udt3422-p12udt3422lv) phases=1 windings=3 %loadloss=0.798816 %Noloadloss=0.472 normhkva=27.5 wdg=1 conn=wye bus=p12udt3422.3 Kv=7.2 kva=25.0 EmergHKVA=37.5 %r=0.266272 wdg=2 conn=wye bus=p12udt3422lv.1.0 Kv=0.12 kva=25.0 EmergHKVA=37.5 %r=0.532544 wdg=3 conn=wye bus=p12udt3422lv.0.2 Kv=0.12 kva=25.0 EmergHKVA=37.5 %r=0.532544 XHL=2.4 XLT=2.4 XHT=1.6

New Transformer.tr(r:p12udt4406-p12udt4406lv) phases=1 windings=3 %loadloss=1.248151 %Noloadloss=0.68 normhkva=11.0 wdg=1 conn=wye bus=p12udt4406.1 Kv=7.2 kva=10.0 EmergHKVA=15.0 %r=0.41605 wdg=2 conn=wye bus=p12udt4406lv.1.0 Kv=0.12 kva=10.0 EmergHKVA=15.0 %r=0.832101 wdg=3 conn=wye bus=p12udt4406lv.0.2 Kv=0.12 kva=10.0 EmergHKVA=15.0 %r=0.832101 XHL=1.08 XLT=1.08 XHT=0.72

New Transformer.tr(r:p12udt4419-p12udt4419lv) phases=1 windings=3 %loadloss=0.798816 %Noloadloss=0.472 normhkva=27.5 wdg=1 conn=wye bus=p12udt4419.1 Kv=7.2 kva=25.0 EmergHKVA=37.5 %r=0.266272 wdg=2 conn=wye bus=p12udt4419lv.1.0 Kv=0.12 kva=25.0 EmergHKVA=37.5 %r=0.532544 wdg=3 conn=wye bus=p12udt4419lv.0.2 Kv=0.12 kva=25.0 EmergHKVA=37.5 %r=0.532544 XHL=2.4 XLT=2.4 XHT=1.6

New Transformer.tr(r:p12udt4420-p12udt4420lv) phases=1 windings=3 %loadloss=0.798816 %Noloadloss=0.472 normhkva=27.5 wdg=1 conn=wye bus=p12udt4420.1 Kv=7.2 kva=25.0 EmergHKVA=37.5 %r=0.266272 wdg=2 conn=wye bus=p12udt4420lv.1.0 Kv=0.12 kva=25.0 EmergHKVA=37.5 %r=0.532544 wdg=3 conn=wye bus=p12udt4420lv.0.2 Kv=0.12 kva=25.0 EmergHKVA=37.5 %r=0.532544 XHL=2.4 XLT=2.4 XHT=1.6

New Transformer.tr(r:p12udt4427-p12udt4427lv) phases=1 windings=3 %loadloss=0.798816 %Noloadloss=0.472 normhkva=27.5 wdg=1 conn=wye bus=p12udt4427.1 Kv=7.2 kva=25.0 EmergHKVA=37.5 %r=0.266272 wdg=2 conn=wye bus=p12udt4427lv.1.0 Kv=0.12 kva=25.0 EmergHKVA=37.5 %r=0.532544 wdg=3 conn=wye bus=p12udt4427lv.0.2 Kv=0.12 kva=25.0 EmergHKVA=37.5 %r=0.532544 XHL=2.4 XLT=2.4 XHT=1.6

New Transformer.tr(r:p12udt5325-p12udt5325lv) phases=1 windings=3 %loadloss=0.599112 %Noloadloss=0.37 normhkva=55.0 wdg=1 conn=wye bus=p12udt5325.2 Kv=7.2 kva=50.0 EmergHKVA=75.0 %r=0.199704 wdg=2 conn=wye bus=p12udt5325lv.1.0 Kv=0.12 kva=50.0 EmergHKVA=75.0 %r=0.399408 wdg=3 conn=wye bus=p12udt5325lv.0.2 Kv=0.12 kva=50.0 EmergHKVA=75.0 %r=0.399408 XHL=2.4 XLT=2.4 XHT=1.6

New Transformer.tr(r:p12udt5327-p12udt5327lv) phases=1 windings=3 %loadloss=0.798816 %Noloadloss=0.472 normhkva=27.5 wdg=1 conn=wye bus=p12udt5327.3 Kv=7.2 kva=25.0 EmergHKVA=37.5 %r=0.266272 wdg=2 conn=wye bus=p12udt5327lv.1.0 Kv=0.12 kva=25.0 EmergHKVA=37.5 %r=0.532544 wdg=3 conn=wye bus=p12udt5327lv.0.2 Kv=0.12 kva=25.0 EmergHKVA=37.5 %r=0.532544 XHL=2.4 XLT=2.4 XHT=1.6

New Transformer.tr(r:p12udt5328-p12udt5328lv) phases=1 windings=3 %loadloss=0.798816 %Noloadloss=0.472 normhkva=27.5 wdg=1 conn=wye bus=p12udt5328.2 Kv=7.2 kva=25.0 EmergHKVA=37.5 %r=0.266272 wdg=2 conn=wye bus=p12udt5328lv.1.0 Kv=0.12 kva=25.0 EmergHKVA=37.5 %r=0.532544 wdg=3 conn=wye bus=p12udt5328lv.0.2 Kv=0.12 kva=25.0 EmergHKVA=37.5 %r=0.532544 XHL=2.4 XLT=2.4 XHT=1.6

New Transformer.tr(r:p12udt5329-p12udt5329lv) phases=3 windings=2 %loadloss=1.61095 %Noloadloss=0.62 normhkva=110.0 wdg=1 conn=wye Kv=12.47 kva=100.0 EmergHKVA=150.0 %R=0.805475 bus=p12udt5329 wdg=2 conn=wye Kv=0.48 kva=100.0 EmergHKVA=150.0 %R=0.805475 bus=p12udt5329lv XHL=3.29

New Transformer.tr(r:p12udt5331-p12udt5331lv) phases=1 windings=3 %loadloss=0.798816 %Noloadloss=0.472 normhkva=27.5 wdg=1 conn=wye bus=p12udt5331.3 Kv=7.2 kva=25.0 EmergHKVA=37.5 %r=0.266272 wdg=2 conn=wye bus=p12udt5331lv.1.0 Kv=0.12 kva=25.0 EmergHKVA=37.5 %r=0.532544 wdg=3 conn=wye bus=p12udt5331lv.0.2 Kv=0.12 kva=25.0 EmergHKVA=37.5 %r=0.532544 XHL=2.4 XLT=2.4 XHT=1.6

New Transformer.tr(r:p12udt5332-p12udt5332lv) phases=1 windings=3 %loadloss=0.798816 %Noloadloss=0.472 normhkva=27.5 wdg=1 conn=wye bus=p12udt5332.3 Kv=7.2 kva=25.0 EmergHKVA=37.5 %r=0.266272 wdg=2 conn=wye bus=p12udt5332lv.1.0 Kv=0.12 kva=25.0 EmergHKVA=37.5 %r=0.532544 wdg=3 conn=wye bus=p12udt5332lv.0.2 Kv=0.12 kva=25.0 EmergHKVA=37.5 %r=0.532544 XHL=2.4 XLT=2.4 XHT=1.6

New Transformer.tr(r:p12udt5333-p12udt5333lv) phases=1 windings=3 %loadloss=0.798816 %Noloadloss=0.472 normhkva=27.5 wdg=1 conn=wye bus=p12udt5333.3 Kv=7.2 kva=25.0 EmergHKVA=37.5 %r=0.266272 wdg=2 conn=wye bus=p12udt5333lv.1.0 Kv=0.12 kva=25.0 EmergHKVA=37.5 %r=0.532544 wdg=3 conn=wye bus=p12udt5333lv.0.2 Kv=0.12 kva=25.0 EmergHKVA=37.5 %r=0.532544 XHL=2.4 XLT=2.4 XHT=1.6

New Transformer.tr(r:p12udt5334-p12udt5334lv) phases=1 windings=3 %loadloss=0.798816 %Noloadloss=0.472 normhkva=27.5 wdg=1 conn=wye bus=p12udt5334.1 Kv=7.2 kva=25.0 EmergHKVA=37.5 %r=0.266272 wdg=2 conn=wye bus=p12udt5334lv.1.0 Kv=0.12 kva=25.0 EmergHKVA=37.5 %r=0.532544 wdg=3 conn=wye bus=p12udt5334lv.0.2 Kv=0.12 kva=25.0 EmergHKVA=37.5 %r=0.532544 XHL=2.4 XLT=2.4 XHT=1.6

New Transformer.tr(r:p12udt5335-p12udt5335lv) phases=1 windings=3 %loadloss=0.798816 %Noloadloss=0.472 normhkva=27.5 wdg=1 conn=wye bus=p12udt5335.1 Kv=7.2 kva=25.0 EmergHKVA=37.5 %r=0.266272 wdg=2 conn=wye bus=p12udt5335lv.1.0 Kv=0.12 kva=25.0 EmergHKVA=37.5 %r=0.532544 wdg=3 conn=wye bus=p12udt5335lv.0.2 Kv=0.12 kva=25.0 EmergHKVA=37.5 %r=0.532544 XHL=2.4 XLT=2.4 XHT=1.6

New Transformer.tr(r:p12udt5336-p12udt5336lv) phases=1 windings=3 %loadloss=1.248151 %Noloadloss=0.68 normhkva=11.0 wdg=1 conn=wye bus=p12udt5336.3 Kv=7.2 kva=10.0 EmergHKVA=15.0 %r=0.41605 wdg=2 conn=wye bus=p12udt5336lv.1.0 Kv=0.12 kva=10.0 EmergHKVA=15.0 %r=0.832101 wdg=3 conn=wye bus=p12udt5336lv.0.2 Kv=0.12 kva=10.0 EmergHKVA=15.0 %r=0.832101 XHL=1.08 XLT=1.08 XHT=0.72

New Transformer.tr(r:p12udt5339-p12udt5339lv) phases=1 windings=3 %loadloss=0.798816 %Noloadloss=0.472 normhkva=27.5 wdg=1 conn=wye bus=p12udt5339.3 Kv=7.2 kva=25.0 EmergHKVA=37.5 %r=0.266272 wdg=2 conn=wye bus=p12udt5339lv.1.0 Kv=0.12 kva=25.0 EmergHKVA=37.5 %r=0.532544 wdg=3 conn=wye bus=p12udt5339lv.0.2 Kv=0.12 kva=25.0 EmergHKVA=37.5 %r=0.532544 XHL=2.4 XLT=2.4 XHT=1.6

New Transformer.tr(r:p12udt5340-p12udt5340lv) phases=1 windings=3 %loadloss=0.798816 %Noloadloss=0.472 normhkva=27.5 wdg=1 conn=wye bus=p12udt5340.1 Kv=7.2 kva=25.0 EmergHKVA=37.5 %r=0.266272 wdg=2 conn=wye bus=p12udt5340lv.1.0 Kv=0.12 kva=25.0 EmergHKVA=37.5 %r=0.532544 wdg=3 conn=wye bus=p12udt5340lv.0.2 Kv=0.12 kva=25.0 EmergHKVA=37.5 %r=0.532544 XHL=2.4 XLT=2.4 XHT=1.6

New Transformer.tr(r:p12udt5341-p12udt5341lv) phases=1 windings=3 %loadloss=0.798816 %Noloadloss=0.472 normhkva=27.5 wdg=1 conn=wye bus=p12udt5341.1 Kv=7.2 kva=25.0 EmergHKVA=37.5 %r=0.266272 wdg=2 conn=wye bus=p12udt5341lv.1.0 Kv=0.12 kva=25.0 EmergHKVA=37.5 %r=0.532544 wdg=3 conn=wye bus=p12udt5341lv.0.2 Kv=0.12 kva=25.0 EmergHKVA=37.5 %r=0.532544 XHL=2.4 XLT=2.4 XHT=1.6

New Transformer.tr(r:p12udt5342-p12udt5342lv) phases=1 windings=3 %loadloss=0.798816 %Noloadloss=0.37 normhkva=55.0 wdg=1 conn=wye bus=p12udt5342.3 Kv=7.2 kva=50.0 EmergHKVA=75.0 %r=0.266272 wdg=2 conn=wye bus=p12udt5342lv.1.0 Kv=0.12 kva=50.0 EmergHKVA=75.0 %r=0.532544 wdg=3 conn=wye bus=p12udt5342lv.0.2 Kv=0.12 kva=50.0 EmergHKVA=75.0 %r=0.532544 XHL=2.4 XLT=2.4 XHT=1.6

New Transformer.tr(r:p12udt5343-p12udt5343lv) phases=1 windings=3 %loadloss=0.798816 %Noloadloss=0.472 normhkva=27.5 wdg=1 conn=wye bus=p12udt5343.2 Kv=7.2 kva=25.0 EmergHKVA=37.5 %r=0.266272 wdg=2 conn=wye bus=p12udt5343lv.1.0 Kv=0.12 kva=25.0 EmergHKVA=37.5 %r=0.532544 wdg=3 conn=wye bus=p12udt5343lv.0.2 Kv=0.12 kva=25.0 EmergHKVA=37.5 %r=0.532544 XHL=2.4 XLT=2.4 XHT=1.6

New Transformer.tr(r:p12udt6200-p12udt6200lv) phases=1 windings=3 %loadloss=0.599112 %Noloadloss=0.37 normhkva=55.0 wdg=1 conn=wye bus=p12udt6200.2 Kv=7.2 kva=50.0 EmergHKVA=75.0 %r=0.199704 wdg=2 conn=wye bus=p12udt6200lv.1.0 Kv=0.12 kva=50.0 EmergHKVA=75.0 %r=0.399408 wdg=3 conn=wye bus=p12udt6200lv.0.2 Kv=0.12 kva=50.0 EmergHKVA=75.0 %r=0.399408 XHL=2.4 XLT=2.4 XHT=1.6

New Transformer.tr(r:p12udt6209-p12udt6209lv) phases=1 windings=3 %loadloss=1.248151 %Noloadloss=0.68 normhkva=11.0 wdg=1 conn=wye bus=p12udt6209.2 Kv=7.2 kva=10.0 EmergHKVA=15.0 %r=0.41605 wdg=2 conn=wye bus=p12udt6209lv.1.0 Kv=0.12 kva=10.0 EmergHKVA=15.0 %r=0.832101 wdg=3 conn=wye bus=p12udt6209lv.0.2 Kv=0.12 kva=10.0 EmergHKVA=15.0 %r=0.832101 XHL=1.08 XLT=1.08 XHT=0.72

New Transformer.tr(r:p12udt6216-p12udt6216lv) phases=1 windings=3 %loadloss=1.248151 %Noloadloss=0.68 normhkva=11.0 wdg=1 conn=wye bus=p12udt6216.1 Kv=7.2 kva=10.0 EmergHKVA=15.0 %r=0.41605 wdg=2 conn=wye bus=p12udt6216lv.1.0 Kv=0.12 kva=10.0 EmergHKVA=15.0 %r=0.832101 wdg=3 conn=wye bus=p12udt6216lv.0.2 Kv=0.12 kva=10.0 EmergHKVA=15.0 %r=0.832101 XHL=1.08 XLT=1.08 XHT=0.72

New Transformer.tr(r:p12udt6234-p12udt6234lv) phases=1 windings=3 %loadloss=1.248151 %Noloadloss=0.68 normhkva=11.0 wdg=1 conn=wye bus=p12udt6234.1 Kv=7.2 kva=10.0 EmergHKVA=15.0 %r=0.41605 wdg=2 conn=wye bus=p12udt6234lv.1.0 Kv=0.12 kva=10.0 EmergHKVA=15.0 %r=0.832101 wdg=3 conn=wye bus=p12udt6234lv.0.2 Kv=0.12 kva=10.0 EmergHKVA=15.0 %r=0.832101 XHL=1.08 XLT=1.08 XHT=0.72

New Transformer.tr(r:p12udt6396-p12udt6396lv) phases=1 windings=3 %loadloss=0.798816 %Noloadloss=0.472 normhkva=27.5 wdg=1 conn=wye bus=p12udt6396.3 Kv=7.2 kva=25.0 EmergHKVA=37.5 %r=0.266272 wdg=2 conn=wye bus=p12udt6396lv.1.0 Kv=0.12 kva=25.0 EmergHKVA=37.5 %r=0.532544 wdg=3 conn=wye bus=p12udt6396lv.0.2 Kv=0.12 kva=25.0 EmergHKVA=37.5 %r=0.532544 XHL=2.4 XLT=2.4 XHT=1.6

New Transformer.tr(r:p12udt6439-p12udt6439lv) phases=3 windings=2 %loadloss=1.74408 %Noloadloss=0.6 normhkva=82.5 wdg=1 conn=wye Kv=12.47 kva=75.0 EmergHKVA=112.5 %R=0.87204 bus=p12udt6439 wdg=2 conn=wye Kv=0.48 kva=75.0 EmergHKVA=112.5 %R=0.87204 bus=p12udt6439lv XHL=3.2400000000000007

New Transformer.tr(r:p12udt6442-p12udt6442lv) phases=1 windings=3 %loadloss=0.599112 %Noloadloss=0.37 normhkva=55.0 wdg=1 conn=wye bus=p12udt6442.2 Kv=7.2 kva=50.0 EmergHKVA=75.0 %r=0.199704 wdg=2 conn=wye bus=p12udt6442lv.1.0 Kv=0.12 kva=50.0 EmergHKVA=75.0 %r=0.399408 wdg=3 conn=wye bus=p12udt6442lv.0.2 Kv=0.12 kva=50.0 EmergHKVA=75.0 %r=0.399408 XHL=2.4 XLT=2.4 XHT=1.6

New Transformer.tr(r:p12udt6469-p12udt6469lv) phases=3 windings=2 %loadloss=1.74408 %Noloadloss=0.6 normhkva=82.5 wdg=1 conn=wye Kv=12.47 kva=75.0 EmergHKVA=112.5 %R=0.87204 bus=p12udt6469 wdg=2 conn=wye Kv=0.48 kva=75.0 EmergHKVA=112.5 %R=0.87204 bus=p12udt6469lv XHL=3.2400000000000007

New Transformer.tr(r:p12udt6495-p12udt6495lv) phases=1 windings=3 %loadloss=0.798816 %Noloadloss=0.472 normhkva=27.5 wdg=1 conn=wye bus=p12udt6495.3 Kv=7.2 kva=25.0 EmergHKVA=37.5 %r=0.266272 wdg=2 conn=wye bus=p12udt6495lv.1.0 Kv=0.12 kva=25.0 EmergHKVA=37.5 %r=0.532544 wdg=3 conn=wye bus=p12udt6495lv.0.2 Kv=0.12 kva=25.0 EmergHKVA=37.5 %r=0.532544 XHL=2.4 XLT=2.4 XHT=1.6

New Transformer.tr(r:p12udt6499-p12udt6499lv) phases=1 windings=3 %loadloss=0.798816 %Noloadloss=0.472 normhkva=27.5 wdg=1 conn=wye bus=p12udt6499.3 Kv=7.2 kva=25.0 EmergHKVA=37.5 %r=0.266272 wdg=2 conn=wye bus=p12udt6499lv.1.0 Kv=0.12 kva=25.0 EmergHKVA=37.5 %r=0.532544 wdg=3 conn=wye bus=p12udt6499lv.0.2 Kv=0.12 kva=25.0 EmergHKVA=37.5 %r=0.532544 XHL=2.4 XLT=2.4 XHT=1.6

New Transformer.tr(r:p12udt6502-p12udt6502lv) phases=1 windings=3 %loadloss=0.599112 %Noloadloss=0.37 normhkva=55.0 wdg=1 conn=wye bus=p12udt6502.1 Kv=7.2 kva=50.0 EmergHKVA=75.0 %r=0.199704 wdg=2 conn=wye bus=p12udt6502lv.1.0 Kv=0.12 kva=50.0 EmergHKVA=75.0 %r=0.399408 wdg=3 conn=wye bus=p12udt6502lv.0.2 Kv=0.12 kva=50.0 EmergHKVA=75.0 %r=0.399408 XHL=2.4 XLT=2.4 XHT=1.6

New Transformer.tr(r:p12udt8134-p12udt8134lv) phases=1 windings=3 %loadloss=1.248151 %Noloadloss=0.68 normhkva=11.0 wdg=1 conn=wye bus=p12udt8134.3 Kv=7.2 kva=10.0 EmergHKVA=15.0 %r=0.41605 wdg=2 conn=wye bus=p12udt8134lv.1.0 Kv=0.12 kva=10.0 EmergHKVA=15.0 %r=0.832101 wdg=3 conn=wye bus=p12udt8134lv.0.2 Kv=0.12 kva=10.0 EmergHKVA=15.0 %r=0.832101 XHL=1.08 XLT=1.08 XHT=0.72

New Transformer.tr(r:p12udt8135-p12udt8135lv) phases=1 windings=3 %loadloss=0.798816 %Noloadloss=0.472 normhkva=27.5 wdg=1 conn=wye bus=p12udt8135.1 Kv=7.2 kva=25.0 EmergHKVA=37.5 %r=0.266272 wdg=2 conn=wye bus=p12udt8135lv.1.0 Kv=0.12 kva=25.0 EmergHKVA=37.5 %r=0.532544 wdg=3 conn=wye bus=p12udt8135lv.0.2 Kv=0.12 kva=25.0 EmergHKVA=37.5 %r=0.532544 XHL=2.4 XLT=2.4 XHT=1.6

New Transformer.tr(r:p12udt8140-p12udt8140lv) phases=1 windings=3 %loadloss=0.798816 %Noloadloss=0.472 normhkva=27.5 wdg=1 conn=wye bus=p12udt8140.1 Kv=7.2 kva=25.0 EmergHKVA=37.5 %r=0.266272 wdg=2 conn=wye bus=p12udt8140lv.1.0 Kv=0.12 kva=25.0 EmergHKVA=37.5 %r=0.532544 wdg=3 conn=wye bus=p12udt8140lv.0.2 Kv=0.12 kva=25.0 EmergHKVA=37.5 %r=0.532544 XHL=2.4 XLT=2.4 XHT=1.6

New Transformer.tr(r:p12udt8147-p12udt8147lv) phases=1 windings=3 %loadloss=0.798816 %Noloadloss=0.37 normhkva=55.0 wdg=1 conn=wye bus=p12udt8147.1 Kv=7.2 kva=50.0 EmergHKVA=75.0 %r=0.266272 wdg=2 conn=wye bus=p12udt8147lv.1.0 Kv=0.12 kva=50.0 EmergHKVA=75.0 %r=0.532544 wdg=3 conn=wye bus=p12udt8147lv.0.2 Kv=0.12 kva=50.0 EmergHKVA=75.0 %r=0.532544 XHL=2.4 XLT=2.4 XHT=1.6

New Transformer.tr(r:p12udt8167-p12udt8167lv) phases=1 windings=3 %loadloss=1.248151 %Noloadloss=0.68 normhkva=11.0 wdg=1 conn=wye bus=p12udt8167.2 Kv=7.2 kva=10.0 EmergHKVA=15.0 %r=0.41605 wdg=2 conn=wye bus=p12udt8167lv.1.0 Kv=0.12 kva=10.0 EmergHKVA=15.0 %r=0.832101 wdg=3 conn=wye bus=p12udt8167lv.0.2 Kv=0.12 kva=10.0 EmergHKVA=15.0 %r=0.832101 XHL=1.08 XLT=1.08 XHT=0.72

New Transformer.tr(r:p12udt8175-p12udt8175lv) phases=1 windings=3 %loadloss=1.248151 %Noloadloss=0.68 normhkva=11.0 wdg=1 conn=wye bus=p12udt8175.1 Kv=7.2 kva=10.0 EmergHKVA=15.0 %r=0.41605 wdg=2 conn=wye bus=p12udt8175lv.1.0 Kv=0.12 kva=10.0 EmergHKVA=15.0 %r=0.832101 wdg=3 conn=wye bus=p12udt8175lv.0.2 Kv=0.12 kva=10.0 EmergHKVA=15.0 %r=0.832101 XHL=1.08 XLT=1.08 XHT=0.72

New Transformer.tr(r:p12udt8321-p12udt8321lv) phases=1 windings=3 %loadloss=1.248151 %Noloadloss=0.68 normhkva=11.0 wdg=1 conn=wye bus=p12udt8321.3 Kv=7.2 kva=10.0 EmergHKVA=15.0 %r=0.41605 wdg=2 conn=wye bus=p12udt8321lv.1.0 Kv=0.12 kva=10.0 EmergHKVA=15.0 %r=0.832101 wdg=3 conn=wye bus=p12udt8321lv.0.2 Kv=0.12 kva=10.0 EmergHKVA=15.0 %r=0.832101 XHL=1.08 XLT=1.08 XHT=0.72

New Transformer.tr(r:p12udt8697-p12udt8697lv) phases=1 windings=3 %loadloss=0.798816 %Noloadloss=0.472 normhkva=27.5 wdg=1 conn=wye bus=p12udt8697.1 Kv=7.2 kva=25.0 EmergHKVA=37.5 %r=0.266272 wdg=2 conn=wye bus=p12udt8697lv.1.0 Kv=0.12 kva=25.0 EmergHKVA=37.5 %r=0.532544 wdg=3 conn=wye bus=p12udt8697lv.0.2 Kv=0.12 kva=25.0 EmergHKVA=37.5 %r=0.532544 XHL=2.4 XLT=2.4 XHT=1.6

New Transformer.tr(r:p12udt8734-p12udt8734lv) phases=1 windings=3 %loadloss=0.798816 %Noloadloss=0.472 normhkva=27.5 wdg=1 conn=wye bus=p12udt8734.1 Kv=7.2 kva=25.0 EmergHKVA=37.5 %r=0.266272 wdg=2 conn=wye bus=p12udt8734lv.1.0 Kv=0.12 kva=25.0 EmergHKVA=37.5 %r=0.532544 wdg=3 conn=wye bus=p12udt8734lv.0.2 Kv=0.12 kva=25.0 EmergHKVA=37.5 %r=0.532544 XHL=2.4 XLT=2.4 XHT=1.6

New Transformer.tr(r:p12udt8742-p12udt8742lv) phases=1 windings=3 %loadloss=0.798816 %Noloadloss=0.472 normhkva=27.5 wdg=1 conn=wye bus=p12udt8742.2 Kv=7.2 kva=25.0 EmergHKVA=37.5 %r=0.266272 wdg=2 conn=wye bus=p12udt8742lv.1.0 Kv=0.12 kva=25.0 EmergHKVA=37.5 %r=0.532544 wdg=3 conn=wye bus=p12udt8742lv.0.2 Kv=0.12 kva=25.0 EmergHKVA=37.5 %r=0.532544 XHL=2.4 XLT=2.4 XHT=1.6

New Transformer.tr(r:p12udt8746-p12udt8746lv) phases=1 windings=3 %loadloss=0.798816 %Noloadloss=0.472 normhkva=27.5 wdg=1 conn=wye bus=p12udt8746.1 Kv=7.2 kva=25.0 EmergHKVA=37.5 %r=0.266272 wdg=2 conn=wye bus=p12udt8746lv.1.0 Kv=0.12 kva=25.0 EmergHKVA=37.5 %r=0.532544 wdg=3 conn=wye bus=p12udt8746lv.0.2 Kv=0.12 kva=25.0 EmergHKVA=37.5 %r=0.532544 XHL=2.4 XLT=2.4 XHT=1.6

New Transformer.tr(r:p12udt8763-p12udt8763lv) phases=1 windings=3 %loadloss=0.798816 %Noloadloss=0.472 normhkva=27.5 wdg=1 conn=wye bus=p12udt8763.3 Kv=7.2 kva=25.0 EmergHKVA=37.5 %r=0.266272 wdg=2 conn=wye bus=p12udt8763lv.1.0 Kv=0.12 kva=25.0 EmergHKVA=37.5 %r=0.532544 wdg=3 conn=wye bus=p12udt8763lv.0.2 Kv=0.12 kva=25.0 EmergHKVA=37.5 %r=0.532544 XHL=2.4 XLT=2.4 XHT=1.6

New Transformer.tr(r:p12udt8764-p12udt8764lv) phases=1 windings=3 %loadloss=0.798816 %Noloadloss=0.472 normhkva=27.5 wdg=1 conn=wye bus=p12udt8764.3 Kv=7.2 kva=25.0 EmergHKVA=37.5 %r=0.266272 wdg=2 conn=wye bus=p12udt8764lv.1.0 Kv=0.12 kva=25.0 EmergHKVA=37.5 %r=0.532544 wdg=3 conn=wye bus=p12udt8764lv.0.2 Kv=0.12 kva=25.0 EmergHKVA=37.5 %r=0.532544 XHL=2.4 XLT=2.4 XHT=1.6

New Transformer.tr(r:p12udt8772-p12udt8772lv) phases=1 windings=3 %loadloss=0.798816 %Noloadloss=0.472 normhkva=27.5 wdg=1 conn=wye bus=p12udt8772.3 Kv=7.2 kva=25.0 EmergHKVA=37.5 %r=0.266272 wdg=2 conn=wye bus=p12udt8772lv.1.0 Kv=0.12 kva=25.0 EmergHKVA=37.5 %r=0.532544 wdg=3 conn=wye bus=p12udt8772lv.0.2 Kv=0.12 kva=25.0 EmergHKVA=37.5 %r=0.532544 XHL=2.4 XLT=2.4 XHT=1.6

